
     RDKit          3D

 13 12  0  0  0  0  0  0  0  0999 V2000
   -1.0892   -0.3157   -0.9154 C   0  0  0  0  0  0  0  0  0  0  0  0
   -0.1540   -0.4468    0.2787 C   0  0  1  0  0  0  0  0  0  0  0  0
    1.1394    0.3423    0.0509 C   0  0  0  0  0  0  0  0  0  0  0  0
    1.5693    1.2468    0.7517 O   0  0  0  0  0  0  0  0  0  0  0  0
    1.8374   -0.0756   -1.0232 O   0  0  0  0  0  0  0  0  0  0  0  0
   -0.8446    0.0428    1.4935 N   0  0  0  0  0  0  0  0  0  0  0  0
   -0.6301   -0.7305   -1.8193 H   0  0  0  0  0  0  0  0  0  0  0  0
   -1.3295    0.7333   -1.1238 H   0  0  0  0  0  0  0  0  0  0  0  0
   -2.0273   -0.8547   -0.7436 H   0  0  0  0  0  0  0  0  0  0  0  0
    0.1152   -1.4959    0.4415 H   0  0  0  0  0  0  0  0  0  0  0  0
    2.6323    0.4981   -1.0294 H   0  0  0  0  0  0  0  0  0  0  0  0
   -0.1765    0.0176    2.2675 H   0  0  0  0  0  0  0  0  0  0  0  0
   -1.0424    1.0383    1.3710 H   0  0  0  0  0  0  0  0  0  0  0  0
  1  2  1  0
  2  3  1  0
  3  4  2  0
  3  5  1  0
  2  6  1  0
  1  7  1  0
  1  8  1  0
  1  9  1  0
  2 10  1  1
  5 11  1  0
  6 12  1  0
  6 13  1  0
M  END
$$$$

     RDKit          3D

 26 25  0  0  0  0  0  0  0  0999 V2000
   -0.0318   -0.4530    0.6418 C   0  0  0  0  0  0  0  0  0  0  0  0
   -1.3436   -1.0928    0.1628 C   0  0  0  0  0  0  0  0  0  0  0  0
   -2.4667   -0.1507   -0.2894 C   0  0  1  0  0  0  0  0  0  0  0  0
   -2.8512    0.8664    0.7951 C   0  0  0  0  0  0  0  0  0  0  0  0
   -2.8371    0.6884    2.0027 O   0  0  0  0  0  0  0  0  0  0  0  0
   -3.3213    2.0314    0.2896 O   0  0  0  0  0  0  0  0  0  0  0  0
   -2.1260    0.5158   -1.5631 N   0  0  0  0  0  0  0  0  0  0  0  0
    0.7192    0.3574   -0.4125 C   0  0  0  0  0  0  0  0  0  0  0  0
    2.0472    0.7034    0.0973 N   0  0  0  0  0  0  0  0  0  0  0  0
    3.0456   -0.0491   -0.1613 C   0  0  0  0  0  0  0  0  0  0  0  0
    4.2747    0.2945    0.2809 N   0  0  0  0  0  0  0  0  0  0  0  0
    3.1134   -1.2131   -0.8438 N   0  0  0  0  0  0  0  0  0  0  0  0
   -0.2161    0.1779    1.5195 H   0  0  0  0  0  0  0  0  0  0  0  0
    0.6158   -1.2656    0.9967 H   0  0  0  0  0  0  0  0  0  0  0  0
   -1.1174   -1.7998   -0.6464 H   0  0  0  0  0  0  0  0  0  0  0  0
   -1.7273   -1.7032    0.9915 H   0  0  0  0  0  0  0  0  0  0  0  0
   -3.3733   -0.7431   -0.4663 H   0  0  0  0  0  0  0  0  0  0  0  0
   -3.4998    2.5705    1.0884 H   0  0  0  0  0  0  0  0  0  0  0  0
   -2.7716    1.3021   -1.6825 H   0  0  0  0  0  0  0  0  0  0  0  0
   -2.2991   -0.1223   -2.3370 H   0  0  0  0  0  0  0  0  0  0  0  0
    0.1952    1.2989   -0.6053 H   0  0  0  0  0  0  0  0  0  0  0  0
    0.7681   -0.1746   -1.3692 H   0  0  0  0  0  0  0  0  0  0  0  0
    4.2391    1.2365    0.6602 H   0  0  0  0  0  0  0  0  0  0  0  0
    4.9681    0.2414   -0.4552 H   0  0  0  0  0  0  0  0  0  0  0  0
    3.7794   -1.8531   -0.4269 H   0  0  0  0  0  0  0  0  0  0  0  0
    2.2164   -1.6643   -0.9682 H   0  0  0  0  0  0  0  0  0  0  0  0
  1  2  1  0
  2  3  1  0
  3  4  1  0
  4  5  2  0
  4  6  1  0
  3  7  1  0
  1  8  1  0
  8  9  1  0
  9 10  2  3
 10 11  1  0
 10 12  1  0
  1 13  1  0
  1 14  1  0
  2 15  1  0
  2 16  1  0
  3 17  1  6
  6 18  1  0
  7 19  1  0
  7 20  1  0
  8 21  1  0
  8 22  1  0
 11 23  1  0
 11 24  1  0
 12 25  1  0
 12 26  1  0
M  END
$$$$

     RDKit          3D

 17 16  0  0  0  0  0  0  0  0999 V2000
   -0.6876   -0.2871    0.5139 C   0  0  0  0  0  0  0  0  0  0  0  0
    0.7343   -0.5775    0.0374 C   0  0  1  0  0  0  0  0  0  0  0  0
    1.3419    0.6621   -0.6332 C   0  0  0  0  0  0  0  0  0  0  0  0
    0.8214    1.7549   -0.7866 O   0  0  0  0  0  0  0  0  0  0  0  0
    2.6208    0.4554   -1.0245 O   0  0  0  0  0  0  0  0  0  0  0  0
    1.5850   -0.9757    1.1908 N   0  0  0  0  0  0  0  0  0  0  0  0
   -1.6351   -0.1735   -0.6598 C   0  0  0  0  0  0  0  0  0  0  0  0
   -1.3585   -0.4905   -1.8101 O   0  0  0  0  0  0  0  0  0  0  0  0
   -2.8819    0.2796   -0.3377 N   0  0  0  0  0  0  0  0  0  0  0  0
   -0.7296    0.6382    1.1014 H   0  0  0  0  0  0  0  0  0  0  0  0
   -1.0529   -1.1079    1.1437 H   0  0  0  0  0  0  0  0  0  0  0  0
    0.7374   -1.3929   -0.6949 H   0  0  0  0  0  0  0  0  0  0  0  0
    2.8738    1.3008   -1.4515 H   0  0  0  0  0  0  0  0  0  0  0  0
    2.5300   -1.1266    0.8258 H   0  0  0  0  0  0  0  0  0  0  0  0
    1.6688   -0.1870    1.8325 H   0  0  0  0  0  0  0  0  0  0  0  0
   -3.0574    0.7770    0.5245 H   0  0  0  0  0  0  0  0  0  0  0  0
   -3.5102    0.4507   -1.1130 H   0  0  0  0  0  0  0  0  0  0  0  0
  1  2  1  0
  2  3  1  0
  3  4  2  0
  3  5  1  0
  2  6  1  0
  1  7  1  0
  7  8  2  0
  7  9  1  0
  1 10  1  0
  1 11  1  0
  2 12  1  6
  5 13  1  0
  6 14  1  0
  6 15  1  0
  9 16  1  0
  9 17  1  0
M  END
$$$$

     RDKit          3D

 16 15  0  0  0  0  0  0  0  0999 V2000
   -0.2636   -0.9175    0.4157 C   0  0  0  0  0  0  0  0  0  0  0  0
    0.5427   -0.1065   -0.5918 C   0  0  1  0  0  0  0  0  0  0  0  0
    0.4995    1.3743   -0.2022 C   0  0  0  0  0  0  0  0  0  0  0  0
   -0.3070    2.2005   -0.5977 O   0  0  0  0  0  0  0  0  0  0  0  0
    1.4266    1.7107    0.7238 O   0  0  0  0  0  0  0  0  0  0  0  0
    1.9504   -0.5743   -0.6561 N   0  0  0  0  0  0  0  0  0  0  0  0
   -1.7009   -0.4844    0.4334 C   0  0  0  0  0  0  0  0  0  0  0  0
   -2.2982   -0.0332    1.3956 O   0  0  0  0  0  0  0  0  0  0  0  0
   -2.3228   -0.6723   -0.7434 O   0  0  0  0  0  0  0  0  0  0  0  0
   -0.2351   -1.9893    0.1872 H   0  0  0  0  0  0  0  0  0  0  0  0
    0.1360   -0.7928    1.4299 H   0  0  0  0  0  0  0  0  0  0  0  0
    0.1256   -0.1928   -1.6012 H   0  0  0  0  0  0  0  0  0  0  0  0
    1.2710    2.6677    0.8700 H   0  0  0  0  0  0  0  0  0  0  0  0
    1.9814   -1.5918   -0.6636 H   0  0  0  0  0  0  0  0  0  0  0  0
    2.4250   -0.2691    0.1979 H   0  0  0  0  0  0  0  0  0  0  0  0
   -3.2306   -0.3291   -0.5974 H   0  0  0  0  0  0  0  0  0  0  0  0
  1  2  1  0
  2  3  1  0
  3  4  2  0
  3  5  1  0
  2  6  1  0
  1  7  1  0
  7  8  2  0
  7  9  1  0
  1 10  1  0
  1 11  1  0
  2 12  1  6
  5 13  1  0
  6 14  1  0
  6 15  1  0
  9 16  1  0
M  END
$$$$

     RDKit          3D

 14 13  0  0  0  0  0  0  0  0999 V2000
   -1.1998    0.1765    0.3266 C   0  0  0  0  0  0  0  0  0  0  0  0
    0.1822    0.5494   -0.2298 C   0  0  1  0  0  0  0  0  0  0  0  0
    1.2242    0.6482    0.8949 C   0  0  0  0  0  0  0  0  0  0  0  0
    1.0471    1.1832    1.9776 O   0  0  0  0  0  0  0  0  0  0  0  0
    2.4090    0.1003    0.5148 O   0  0  0  0  0  0  0  0  0  0  0  0
    0.6924   -0.3943   -1.2786 N   0  0  0  0  0  0  0  0  0  0  0  0
   -1.3585   -1.5967    0.7428 S   0  0  0  0  0  0  0  0  0  0  0  0
   -1.4359    0.7591    1.2228 H   0  0  0  0  0  0  0  0  0  0  0  0
   -1.9673    0.3963   -0.4232 H   0  0  0  0  0  0  0  0  0  0  0  0
    0.1385    1.5483   -0.6800 H   0  0  0  0  0  0  0  0  0  0  0  0
    2.2633   -0.2473   -0.4016 H   0  0  0  0  0  0  0  0  0  0  0  0
    0.1083   -0.2760   -2.1118 H   0  0  0  0  0  0  0  0  0  0  0  0
    0.4470   -1.3434   -0.9573 H   0  0  0  0  0  0  0  0  0  0  0  0
   -2.5505   -1.5038    1.3527 H   0  0  0  0  0  0  0  0  0  0  0  0
  1  2  1  0
  2  3  1  0
  3  4  2  0
  3  5  1  0
  2  6  1  0
  1  7  1  0
  1  8  1  0
  1  9  1  0
  2 10  1  6
  5 11  1  0
  6 12  1  0
  6 13  1  0
  7 14  1  0
M  END
$$$$

     RDKit          3D

 20 19  0  0  0  0  0  0  0  0999 V2000
    0.0549    0.4556    0.6393 C   0  0  0  0  0  0  0  0  0  0  0  0
    0.9974   -0.0922   -0.4368 C   0  0  0  0  0  0  0  0  0  0  0  0
    2.4223   -0.2041    0.0623 C   0  0  0  0  0  0  0  0  0  0  0  0
    2.8193    0.1902    1.1507 O   0  0  0  0  0  0  0  0  0  0  0  0
    3.2832   -0.7733   -0.8318 N   0  0  0  0  0  0  0  0  0  0  0  0
   -1.3798    0.6491    0.1302 C   0  0  1  0  0  0  0  0  0  0  0  0
   -2.2272   -0.6356    0.0766 C   0  0  0  0  0  0  0  0  0  0  0  0
   -3.4509   -0.6752    0.0624 O   0  0  0  0  0  0  0  0  0  0  0  0
   -1.5296   -1.7808   -0.0241 O   0  0  0  0  0  0  0  0  0  0  0  0
   -2.0631    1.6096    1.0250 N   0  0  0  0  0  0  0  0  0  0  0  0
    0.4591    1.4203    0.9763 H   0  0  0  0  0  0  0  0  0  0  0  0
    0.0666   -0.2056    1.5158 H   0  0  0  0  0  0  0  0  0  0  0  0
    0.9995    0.5784   -1.3043 H   0  0  0  0  0  0  0  0  0  0  0  0
    0.6802   -1.0824   -0.7759 H   0  0  0  0  0  0  0  0  0  0  0  0
    2.9541   -1.3144   -1.6189 H   0  0  0  0  0  0  0  0  0  0  0  0
    4.2261   -0.9399   -0.5034 H   0  0  0  0  0  0  0  0  0  0  0  0
   -1.3698    1.0661   -0.8835 H   0  0  0  0  0  0  0  0  0  0  0  0
   -2.2269   -2.4705   -0.0178 H   0  0  0  0  0  0  0  0  0  0  0  0
   -3.0473    1.6651    0.7522 H   0  0  0  0  0  0  0  0  0  0  0  0
   -1.6683    2.5395    0.8968 H   0  0  0  0  0  0  0  0  0  0  0  0
  1  2  1  0
  2  3  1  0
  3  4  2  0
  3  5  1  0
  1  6  1  0
  6  7  1  0
  7  8  2  0
  7  9  1  0
  6 10  1  0
  1 11  1  0
  1 12  1  0
  2 13  1  0
  2 14  1  0
  5 15  1  0
  5 16  1  0
  6 17  1  6
  9 18  1  0
 10 19  1  0
 10 20  1  0
M  END
$$$$

     RDKit          3D

 19 18  0  0  0  0  0  0  0  0999 V2000
    0.1102    0.5565    0.0527 C   0  0  0  0  0  0  0  0  0  0  0  0
    1.5460    0.0972   -0.2106 C   0  0  0  0  0  0  0  0  0  0  0  0
    2.5052    1.2614   -0.2701 C   0  0  0  0  0  0  0  0  0  0  0  0
    2.2077    2.4332   -0.1058 O   0  0  0  0  0  0  0  0  0  0  0  0
    3.7735    0.8662   -0.5305 O   0  0  0  0  0  0  0  0  0  0  0  0
   -0.8706   -0.6134    0.1725 C   0  0  1  0  0  0  0  0  0  0  0  0
   -2.2742   -0.1007    0.5329 C   0  0  0  0  0  0  0  0  0  0  0  0
   -2.5492    0.7255    1.3874 O   0  0  0  0  0  0  0  0  0  0  0  0
   -3.2628   -0.6874   -0.1803 O   0  0  0  0  0  0  0  0  0  0  0  0
   -0.8910   -1.3978   -1.0871 N   0  0  0  0  0  0  0  0  0  0  0  0
   -0.2133    1.2410   -0.7434 H   0  0  0  0  0  0  0  0  0  0  0  0
    0.0855    1.1468    0.9784 H   0  0  0  0  0  0  0  0  0  0  0  0
    1.6064   -0.4311   -1.1680 H   0  0  0  0  0  0  0  0  0  0  0  0
    1.8726   -0.5728    0.5924 H   0  0  0  0  0  0  0  0  0  0  0  0
    3.8643   -0.0986   -0.6484 H   0  0  0  0  0  0  0  0  0  0  0  0
   -0.5636   -1.2866    0.9810 H   0  0  0  0  0  0  0  0  0  0  0  0
   -4.0784   -0.2697    0.1703 H   0  0  0  0  0  0  0  0  0  0  0  0
   -1.2222   -0.7849   -1.8358 H   0  0  0  0  0  0  0  0  0  0  0  0
   -1.6463   -2.0850   -0.9968 H   0  0  0  0  0  0  0  0  0  0  0  0
  1  2  1  0
  2  3  1  0
  3  4  2  0
  3  5  1  0
  1  6  1  0
  6  7  1  0
  7  8  2  0
  7  9  1  0
  6 10  1  0
  1 11  1  0
  1 12  1  0
  2 13  1  0
  2 14  1  0
  5 15  1  0
  6 16  1  1
  9 17  1  0
 10 18  1  0
 10 19  1  0
M  END
$$$$

     RDKit          3D

 10  9  0  0  0  0  0  0  0  0999 V2000
    0.4329    0.3311   -0.5578 C   0  0  0  0  0  0  0  0  0  0  0  0
   -0.7798    0.0015    0.3009 C   0  0  0  0  0  0  0  0  0  0  0  0
   -0.8205   -0.7810    1.2379 O   0  0  0  0  0  0  0  0  0  0  0  0
   -1.8805    0.6826   -0.0735 O   0  0  0  0  0  0  0  0  0  0  0  0
    1.6167   -0.4319   -0.1191 N   0  0  0  0  0  0  0  0  0  0  0  0
    0.6462    1.4006   -0.4749 H   0  0  0  0  0  0  0  0  0  0  0  0
    0.2101    0.0782   -1.5983 H   0  0  0  0  0  0  0  0  0  0  0  0
   -2.5732    0.3805    0.5510 H   0  0  0  0  0  0  0  0  0  0  0  0
    1.3778   -1.4259   -0.1386 H   0  0  0  0  0  0  0  0  0  0  0  0
    1.7703   -0.2357    0.8725 H   0  0  0  0  0  0  0  0  0  0  0  0
  1  2  1  0
  2  3  2  0
  2  4  1  0
  1  5  1  0
  1  6  1  0
  1  7  1  0
  4  8  1  0
  5  9  1  0
  5 10  1  0
M  END
$$$$

     RDKit          3D

 20 20  0  0  0  0  0  0  0  0999 V2000
    2.0558   -0.7401    1.3408 C   0  0  0  0  0  0  0  0  0  0  0  0
    1.1855   -0.4313    0.3174 C   0  0  0  0  0  0  0  0  0  0  0  0
    1.8570    0.5050   -0.4352 N   0  0  0  0  0  0  0  0  0  0  0  0
    3.0633    0.7274    0.1627 C   0  0  0  0  0  0  0  0  0  0  0  0
    3.2122   -0.0134    1.2365 N   0  0  0  0  0  0  0  0  0  0  0  0
   -0.1791   -0.9301   -0.0203 C   0  0  0  0  0  0  0  0  0  0  0  0
   -1.2664    0.1492    0.1160 C   0  0  1  0  0  0  0  0  0  0  0  0
   -1.3266    1.0361   -1.1457 C   0  0  0  0  0  0  0  0  0  0  0  0
   -0.3638    1.4597   -1.7683 O   0  0  0  0  0  0  0  0  0  0  0  0
   -2.6125    1.3135   -1.4876 O   0  0  0  0  0  0  0  0  0  0  0  0
   -2.6257   -0.4567    0.3040 N   0  0  0  0  0  0  0  0  0  0  0  0
    1.9128   -1.4457    2.1493 H   0  0  0  0  0  0  0  0  0  0  0  0
    1.4985    0.9808   -1.2592 H   0  0  0  0  0  0  0  0  0  0  0  0
    3.7819    1.4363   -0.2263 H   0  0  0  0  0  0  0  0  0  0  0  0
   -0.1730   -1.3491   -1.0347 H   0  0  0  0  0  0  0  0  0  0  0  0
   -0.4051   -1.7629    0.6592 H   0  0  0  0  0  0  0  0  0  0  0  0
   -1.0795    0.8126    0.9685 H   0  0  0  0  0  0  0  0  0  0  0  0
   -3.1768    0.8343   -0.8285 H   0  0  0  0  0  0  0  0  0  0  0  0
   -2.6602   -0.8433    1.2531 H   0  0  0  0  0  0  0  0  0  0  0  0
   -2.6981   -1.2822   -0.3016 H   0  0  0  0  0  0  0  0  0  0  0  0
  1  2  2  0
  2  3  1  0
  3  4  1  0
  4  5  2  0
  2  6  1  0
  6  7  1  0
  7  8  1  0
  8  9  2  0
  8 10  1  0
  7 11  1  0
  5  1  1  0
  1 12  1  0
  3 13  1  0
  4 14  1  0
  6 15  1  0
  6 16  1  0
  7 17  1  1
 10 18  1  0
 11 19  1  0
 11 20  1  0
M  END
$$$$

     RDKit          3D

 22 21  0  0  0  0  0  0  0  0999 V2000
   -2.2347    1.1525   -0.5519 C   0  0  0  0  0  0  0  0  0  0  0  0
   -1.7242   -0.1163    0.1174 C   0  0  0  0  0  0  0  0  0  0  0  0
   -0.2738   -0.5167   -0.2517 C   0  0  2  0  0  0  0  0  0  0  0  0
   -0.1078   -2.0147    0.0665 C   0  0  0  0  0  0  0  0  0  0  0  0
    0.8091    0.3168    0.4834 C   0  0  1  0  0  0  0  0  0  0  0  0
    2.2252   -0.1740    0.1295 C   0  0  0  0  0  0  0  0  0  0  0  0
    2.8792   -1.0056    0.7376 O   0  0  0  0  0  0  0  0  0  0  0  0
    2.7256    0.3999   -0.9892 O   0  0  0  0  0  0  0  0  0  0  0  0
    0.7120    1.7606    0.1638 N   0  0  0  0  0  0  0  0  0  0  0  0
   -1.7970    2.0531   -0.1162 H   0  0  0  0  0  0  0  0  0  0  0  0
   -3.3190    1.2311   -0.4170 H   0  0  0  0  0  0  0  0  0  0  0  0
   -2.0307    1.1440   -1.6270 H   0  0  0  0  0  0  0  0  0  0  0  0
   -1.8255   -0.0233    1.2055 H   0  0  0  0  0  0  0  0  0  0  0  0
   -2.4036   -0.9233   -0.1865 H   0  0  0  0  0  0  0  0  0  0  0  0
   -0.1425   -0.4041   -1.3366 H   0  0  0  0  0  0  0  0  0  0  0  0
   -0.8911   -2.6074   -0.4188 H   0  0  0  0  0  0  0  0  0  0  0  0
   -0.1630   -2.1984    1.1448 H   0  0  0  0  0  0  0  0  0  0  0  0
    0.8478   -2.4009   -0.3007 H   0  0  0  0  0  0  0  0  0  0  0  0
    0.6919    0.2143    1.5687 H   0  0  0  0  0  0  0  0  0  0  0  0
    3.6059   -0.0197   -1.0911 H   0  0  0  0  0  0  0  0  0  0  0  0
    0.9876    1.8720   -0.8162 H   0  0  0  0  0  0  0  0  0  0  0  0
    1.4284    2.2601    0.6913 H   0  0  0  0  0  0  0  0  0  0  0  0
  1  2  1  0
  2  3  1  0
  3  4  1  0
  3  5  1  0
  5  6  1  0
  6  7  2  0
  6  8  1  0
  5  9  1  0
  1 10  1  0
  1 11  1  0
  1 12  1  0
  2 13  1  0
  2 14  1  0
  3 15  1  6
  4 16  1  0
  4 17  1  0
  4 18  1  0
  5 19  1  1
  8 20  1  0
  9 21  1  0
  9 22  1  0
M  END
$$$$

     RDKit          3D

 22 21  0  0  0  0  0  0  0  0999 V2000
   -2.3461   -1.0284   -0.3006 C   0  0  0  0  0  0  0  0  0  0  0  0
   -1.3068    0.0797   -0.1073 C   0  0  0  0  0  0  0  0  0  0  0  0
   -1.7323    0.9899    1.0455 C   0  0  0  0  0  0  0  0  0  0  0  0
    0.0845   -0.5465    0.1229 C   0  0  0  0  0  0  0  0  0  0  0  0
    1.2424    0.4540    0.2639 C   0  0  1  0  0  0  0  0  0  0  0  0
    2.5643   -0.2955    0.4846 C   0  0  0  0  0  0  0  0  0  0  0  0
    3.5424   -0.2714   -0.2480 O   0  0  0  0  0  0  0  0  0  0  0  0
    2.5906   -1.0041    1.6304 O   0  0  0  0  0  0  0  0  0  0  0  0
    1.3490    1.3060   -0.9431 N   0  0  0  0  0  0  0  0  0  0  0  0
   -3.3347   -0.6035   -0.5044 H   0  0  0  0  0  0  0  0  0  0  0  0
   -2.4258   -1.6595    0.5911 H   0  0  0  0  0  0  0  0  0  0  0  0
   -2.0787   -1.6692   -1.1475 H   0  0  0  0  0  0  0  0  0  0  0  0
   -1.2881    0.6759   -1.0277 H   0  0  0  0  0  0  0  0  0  0  0  0
   -1.0777    1.8628    1.1268 H   0  0  0  0  0  0  0  0  0  0  0  0
   -2.7505    1.3629    0.8901 H   0  0  0  0  0  0  0  0  0  0  0  0
   -1.7109    0.4561    2.0016 H   0  0  0  0  0  0  0  0  0  0  0  0
    0.3066   -1.2337   -0.7058 H   0  0  0  0  0  0  0  0  0  0  0  0
    0.0435   -1.1759    1.0222 H   0  0  0  0  0  0  0  0  0  0  0  0
    1.0979    1.1096    1.1290 H   0  0  0  0  0  0  0  0  0  0  0  0
    3.4849   -1.4055    1.6424 H   0  0  0  0  0  0  0  0  0  0  0  0
    1.5651    0.7037   -1.7406 H   0  0  0  0  0  0  0  0  0  0  0  0
    2.1805    1.8928   -0.8444 H   0  0  0  0  0  0  0  0  0  0  0  0
  1  2  1  0
  2  3  1  0
  2  4  1  0
  4  5  1  0
  5  6  1  0
  6  7  2  0
  6  8  1  0
  5  9  1  0
  1 10  1  0
  1 11  1  0
  1 12  1  0
  2 13  1  0
  3 14  1  0
  3 15  1  0
  3 16  1  0
  4 17  1  0
  4 18  1  0
  5 19  1  1
  8 20  1  0
  9 21  1  0
  9 22  1  0
M  END
$$$$

     RDKit          3D

 24 23  0  0  0  0  0  0  0  0999 V2000
    0.4604   -0.2410    0.0979 C   0  0  0  0  0  0  0  0  0  0  0  0
    1.5899    0.1224   -0.8695 C   0  0  0  0  0  0  0  0  0  0  0  0
    2.9370   -0.3925   -0.3649 C   0  0  0  0  0  0  0  0  0  0  0  0
    3.9969   -0.0274   -1.2968 N   0  0  0  0  0  0  0  0  0  0  0  0
   -0.8962    0.2454   -0.4240 C   0  0  0  0  0  0  0  0  0  0  0  0
   -2.0475   -0.0190    0.5558 C   0  0  1  0  0  0  0  0  0  0  0  0
   -3.3553    0.5832    0.0073 C   0  0  0  0  0  0  0  0  0  0  0  0
   -4.2877   -0.0777   -0.4302 O   0  0  0  0  0  0  0  0  0  0  0  0
   -3.3963    1.9349    0.0655 O   0  0  0  0  0  0  0  0  0  0  0  0
   -2.2175   -1.4689    0.7867 N   0  0  0  0  0  0  0  0  0  0  0  0
    0.6595    0.2096    1.0778 H   0  0  0  0  0  0  0  0  0  0  0  0
    0.4415   -1.3281    0.2376 H   0  0  0  0  0  0  0  0  0  0  0  0
    1.6288    1.2124   -0.9906 H   0  0  0  0  0  0  0  0  0  0  0  0
    1.3770   -0.3048   -1.8576 H   0  0  0  0  0  0  0  0  0  0  0  0
    2.9092   -1.4828   -0.2649 H   0  0  0  0  0  0  0  0  0  0  0  0
    3.1600    0.0279    0.6218 H   0  0  0  0  0  0  0  0  0  0  0  0
    4.8917   -0.3583   -0.9377 H   0  0  0  0  0  0  0  0  0  0  0  0
    4.0709    0.9871   -1.3573 H   0  0  0  0  0  0  0  0  0  0  0  0
   -1.1109   -0.2309   -1.3902 H   0  0  0  0  0  0  0  0  0  0  0  0
   -0.8324    1.3220   -0.6275 H   0  0  0  0  0  0  0  0  0  0  0  0
   -1.8455    0.4479    1.5266 H   0  0  0  0  0  0  0  0  0  0  0  0
   -2.6016    2.3435    0.4575 H   0  0  0  0  0  0  0  0  0  0  0  0
   -3.0495   -1.6055    1.3670 H   0  0  0  0  0  0  0  0  0  0  0  0
   -2.4823   -1.8994   -0.1047 H   0  0  0  0  0  0  0  0  0  0  0  0
  1  2  1  0
  2  3  1  0
  3  4  1  0
  1  5  1  0
  5  6  1  0
  6  7  1  0
  7  8  2  0
  7  9  1  0
  6 10  1  0
  1 11  1  0
  1 12  1  0
  2 13  1  0
  2 14  1  0
  3 15  1  0
  3 16  1  0
  4 17  1  0
  4 18  1  0
  5 19  1  0
  5 20  1  0
  6 21  1  1
  9 22  1  0
 10 23  1  0
 10 24  1  0
M  END
$$$$

     RDKit          3D

 20 19  0  0  0  0  0  0  0  0999 V2000
    3.2969    0.1581    0.0057 C   0  0  0  0  0  0  0  0  0  0  0  0
    2.3573    0.3566   -1.5285 S   0  0  0  0  0  0  0  0  0  0  0  0
    0.7167   -0.2113   -0.9641 C   0  0  0  0  0  0  0  0  0  0  0  0
    0.0456    0.7949   -0.0278 C   0  0  0  0  0  0  0  0  0  0  0  0
   -1.3663    0.3872    0.4243 C   0  0  1  0  0  0  0  0  0  0  0  0
   -2.3370    0.3126   -0.7688 C   0  0  0  0  0  0  0  0  0  0  0  0
   -2.4136    1.1564   -1.6488 O   0  0  0  0  0  0  0  0  0  0  0  0
   -3.1305   -0.7849   -0.7582 O   0  0  0  0  0  0  0  0  0  0  0  0
   -1.3336   -0.8573    1.2190 N   0  0  0  0  0  0  0  0  0  0  0  0
    4.3556    0.3370   -0.2008 H   0  0  0  0  0  0  0  0  0  0  0  0
    2.9704    0.8802    0.7575 H   0  0  0  0  0  0  0  0  0  0  0  0
    3.1883   -0.8578    0.3941 H   0  0  0  0  0  0  0  0  0  0  0  0
    0.1074   -0.3572   -1.8615 H   0  0  0  0  0  0  0  0  0  0  0  0
    0.8351   -1.1901   -0.4895 H   0  0  0  0  0  0  0  0  0  0  0  0
    0.6610    0.9442    0.8679 H   0  0  0  0  0  0  0  0  0  0  0  0
   -0.0155    1.7698   -0.5296 H   0  0  0  0  0  0  0  0  0  0  0  0
   -1.7575    1.1729    1.0820 H   0  0  0  0  0  0  0  0  0  0  0  0
   -2.9455   -1.3362    0.0232 H   0  0  0  0  0  0  0  0  0  0  0  0
   -1.0769   -1.6843    0.6861 H   0  0  0  0  0  0  0  0  0  0  0  0
   -2.1578   -0.9910    1.7990 H   0  0  0  0  0  0  0  0  0  0  0  0
  1  2  1  0
  2  3  1  0
  3  4  1  0
  4  5  1  0
  5  6  1  0
  6  7  2  0
  6  8  1  0
  5  9  1  0
  1 10  1  0
  1 11  1  0
  1 12  1  0
  3 13  1  0
  3 14  1  0
  4 15  1  0
  4 16  1  0
  5 17  1  1
  8 18  1  0
  9 19  1  0
  9 20  1  0
M  END
$$$$

     RDKit          3D

 23 23  0  0  0  0  0  0  0  0999 V2000
    3.0882    0.9144    0.1787 C   0  0  0  0  0  0  0  0  0  0  0  0
    2.7654   -0.4039    0.4941 C   0  0  0  0  0  0  0  0  0  0  0  0
    1.5265   -0.9275    0.1236 C   0  0  0  0  0  0  0  0  0  0  0  0
    0.5983   -0.1343   -0.5655 C   0  0  0  0  0  0  0  0  0  0  0  0
    0.9362    1.1874   -0.8858 C   0  0  0  0  0  0  0  0  0  0  0  0
    2.1753    1.7086   -0.5123 C   0  0  0  0  0  0  0  0  0  0  0  0
   -0.7612   -0.6895   -0.9252 C   0  0  0  0  0  0  0  0  0  0  0  0
   -1.6969   -0.7981    0.2889 C   0  0  1  0  0  0  0  0  0  0  0  0
   -2.2198    0.5894    0.7062 C   0  0  0  0  0  0  0  0  0  0  0  0
   -3.3359    1.0084    0.4240 O   0  0  0  0  0  0  0  0  0  0  0  0
   -1.3484    1.3172    1.4401 O   0  0  0  0  0  0  0  0  0  0  0  0
   -2.8491   -1.6731   -0.0513 N   0  0  0  0  0  0  0  0  0  0  0  0
    4.0556    1.3209    0.4633 H   0  0  0  0  0  0  0  0  0  0  0  0
    3.4833   -1.0265    1.0226 H   0  0  0  0  0  0  0  0  0  0  0  0
    1.2937   -1.9624    0.3692 H   0  0  0  0  0  0  0  0  0  0  0  0
    0.2357    1.8248   -1.4232 H   0  0  0  0  0  0  0  0  0  0  0  0
    2.4302    2.7354   -0.7642 H   0  0  0  0  0  0  0  0  0  0  0  0
   -0.6050   -1.6796   -1.3750 H   0  0  0  0  0  0  0  0  0  0  0  0
   -1.2191   -0.0715   -1.7090 H   0  0  0  0  0  0  0  0  0  0  0  0
   -1.1981   -1.2527    1.1523 H   0  0  0  0  0  0  0  0  0  0  0  0
   -0.4718    0.8981    1.5596 H   0  0  0  0  0  0  0  0  0  0  0  0
   -3.4038   -1.1894   -0.7656 H   0  0  0  0  0  0  0  0  0  0  0  0
   -3.4793   -1.6960    0.7546 H   0  0  0  0  0  0  0  0  0  0  0  0
  1  2  2  0
  2  3  1  0
  3  4  2  0
  4  5  1  0
  5  6  2  0
  4  7  1  0
  7  8  1  0
  8  9  1  0
  9 10  2  0
  9 11  1  0
  8 12  1  0
  6  1  1  0
  1 13  1  0
  2 14  1  0
  3 15  1  0
  5 16  1  0
  6 17  1  0
  7 18  1  0
  7 19  1  0
  8 20  1  1
 11 21  1  0
 12 22  1  0
 12 23  1  0
M  END
$$$$

     RDKit          3D

 17 17  0  0  0  0  0  0  0  0999 V2000
    1.4907    0.5843    0.4940 C   0  0  0  0  0  0  0  0  0  0  0  0
    0.1162    1.1104    0.1090 C   0  0  0  0  0  0  0  0  0  0  0  0
   -0.5180    0.0003   -0.7284 C   0  0  0  0  0  0  0  0  0  0  0  0
    0.5065   -1.0670   -0.8092 N   0  0  0  0  0  0  0  0  0  0  0  0
    1.3459   -0.9170    0.3785 C   0  0  0  0  0  0  0  0  0  0  0  0
   -1.8160   -0.5265   -0.0943 C   0  0  0  0  0  0  0  0  0  0  0  0
   -1.9759   -1.6693    0.3130 O   0  0  0  0  0  0  0  0  0  0  0  0
   -2.8059    0.3977   -0.0510 O   0  0  0  0  0  0  0  0  0  0  0  0
    1.7883    0.9009    1.4980 H   0  0  0  0  0  0  0  0  0  0  0  0
    2.2427    0.9522   -0.2150 H   0  0  0  0  0  0  0  0  0  0  0  0
   -0.4644    1.3268    1.0132 H   0  0  0  0  0  0  0  0  0  0  0  0
    0.2110    2.0413   -0.4602 H   0  0  0  0  0  0  0  0  0  0  0  0
   -0.7554    0.3357   -1.7436 H   0  0  0  0  0  0  0  0  0  0  0  0
    0.0397   -1.9801   -0.7804 H   0  0  0  0  0  0  0  0  0  0  0  0
    0.8466   -1.3319    1.2619 H   0  0  0  0  0  0  0  0  0  0  0  0
    2.3106   -1.4166    0.2549 H   0  0  0  0  0  0  0  0  0  0  0  0
   -2.5626    1.2588   -0.4405 H   0  0  0  0  0  0  0  0  0  0  0  0
  1  2  1  0
  2  3  1  0
  3  4  1  0
  4  5  1  0
  3  6  1  0
  6  7  2  0
  6  8  1  0
  5  1  1  0
  1  9  1  0
  1 10  1  0
  2 11  1  0
  2 12  1  0
  3 13  1  0
  4 14  1  0
  5 15  1  0
  5 16  1  0
  8 17  1  0
M  END
$$$$

     RDKit          3D

 14 13  0  0  0  0  0  0  0  0999 V2000
    1.2360    0.5460    0.1866 C   0  0  0  0  0  0  0  0  0  0  0  0
   -0.1628    0.4218   -0.4357 C   0  0  1  0  0  0  0  0  0  0  0  0
   -0.8695   -0.8274    0.1028 C   0  0  0  0  0  0  0  0  0  0  0  0
   -2.0016   -0.8789    0.5602 O   0  0  0  0  0  0  0  0  0  0  0  0
   -0.1311   -1.9531   -0.0036 O   0  0  0  0  0  0  0  0  0  0  0  0
   -0.9851    1.6212   -0.1388 N   0  0  0  0  0  0  0  0  0  0  0  0
    2.1587   -0.3728   -0.4015 O   0  0  0  0  0  0  0  0  0  0  0  0
    1.6441    1.5479    0.0157 H   0  0  0  0  0  0  0  0  0  0  0  0
    1.2180    0.3688    1.2678 H   0  0  0  0  0  0  0  0  0  0  0  0
   -0.0912    0.3100   -1.5234 H   0  0  0  0  0  0  0  0  0  0  0  0
   -0.7293   -2.6564    0.3330 H   0  0  0  0  0  0  0  0  0  0  0  0
   -1.1353    1.6752    0.8707 H   0  0  0  0  0  0  0  0  0  0  0  0
   -1.9209    1.4628   -0.5215 H   0  0  0  0  0  0  0  0  0  0  0  0
    1.7700   -1.2651   -0.3123 H   0  0  0  0  0  0  0  0  0  0  0  0
  1  2  1  0
  2  3  1  0
  3  4  2  0
  3  5  1  0
  2  6  1  0
  1  7  1  0
  1  8  1  0
  1  9  1  0
  2 10  1  6
  5 11  1  0
  6 12  1  0
  6 13  1  0
  7 14  1  0
M  END
$$$$

     RDKit          3D

 17 16  0  0  0  0  0  0  0  0999 V2000
   -1.6235   -0.1126   -1.1474 C   0  0  0  0  0  0  0  0  0  0  0  0
   -0.6740    0.5446   -0.1510 C   0  0  2  0  0  0  0  0  0  0  0  0
    0.4755   -0.3786    0.3013 C   0  0  1  0  0  0  0  0  0  0  0  0
    1.5643   -0.5104   -0.7743 C   0  0  0  0  0  0  0  0  0  0  0  0
    1.3751   -0.6693   -1.9686 O   0  0  0  0  0  0  0  0  0  0  0  0
    2.8051   -0.4592   -0.2182 O   0  0  0  0  0  0  0  0  0  0  0  0
    1.1302    0.1554    1.5521 N   0  0  0  0  0  0  0  0  0  0  0  0
   -1.4278    0.9497    1.0067 O   0  0  0  0  0  0  0  0  0  0  0  0
   -2.4686    0.5517   -1.3594 H   0  0  0  0  0  0  0  0  0  0  0  0
   -2.0466   -1.0353   -0.7354 H   0  0  0  0  0  0  0  0  0  0  0  0
   -1.1300   -0.3492   -2.0930 H   0  0  0  0  0  0  0  0  0  0  0  0
   -0.2674    1.4609   -0.5950 H   0  0  0  0  0  0  0  0  0  0  0  0
    0.1101   -1.3838    0.5388 H   0  0  0  0  0  0  0  0  0  0  0  0
    2.6589   -0.3200    0.7532 H   0  0  0  0  0  0  0  0  0  0  0  0
    0.4035    0.1145    2.2785 H   0  0  0  0  0  0  0  0  0  0  0  0
    1.2145    1.1737    1.4250 H   0  0  0  0  0  0  0  0  0  0  0  0
   -2.0994    0.2680    1.1867 H   0  0  0  0  0  0  0  0  0  0  0  0
  1  2  1  0
  2  3  1  0
  3  4  1  0
  4  5  2  0
  4  6  1  0
  3  7  1  0
  2  8  1  0
  1  9  1  0
  1 10  1  0
  1 11  1  0
  2 12  1  6
  3 13  1  1
  6 14  1  0
  7 15  1  0
  7 16  1  0
  8 17  1  0
M  END
$$$$

     RDKit          3D

 27 28  0  0  0  0  0  0  0  0999 V2000
    2.9569    1.1709    1.2933 C   0  0  0  0  0  0  0  0  0  0  0  0
    3.8806    0.3588    0.6404 C   0  0  0  0  0  0  0  0  0  0  0  0
    3.4664   -0.7584   -0.0902 C   0  0  0  0  0  0  0  0  0  0  0  0
    2.0937   -1.0292   -0.1401 C   0  0  0  0  0  0  0  0  0  0  0  0
    1.1424   -0.2356    0.5018 C   0  0  0  0  0  0  0  0  0  0  0  0
    1.5875    0.8863    1.2317 C   0  0  0  0  0  0  0  0  0  0  0  0
   -0.1445   -0.8040    0.2295 C   0  0  0  0  0  0  0  0  0  0  0  0
    0.0699   -1.9207   -0.5534 C   0  0  0  0  0  0  0  0  0  0  0  0
    1.4142   -2.0420   -0.7751 N   0  0  0  0  0  0  0  0  0  0  0  0
   -1.4724   -0.2880    0.6922 C   0  0  0  0  0  0  0  0  0  0  0  0
   -2.0875    0.7259   -0.2851 C   0  0  1  0  0  0  0  0  0  0  0  0
   -2.8728   -0.0204   -1.3815 C   0  0  0  0  0  0  0  0  0  0  0  0
   -2.3943   -0.6323   -2.3218 O   0  0  0  0  0  0  0  0  0  0  0  0
   -4.2151    0.0739   -1.1673 O   0  0  0  0  0  0  0  0  0  0  0  0
   -3.0560    1.6352    0.4234 N   0  0  0  0  0  0  0  0  0  0  0  0
    3.3015    2.0341    1.8572 H   0  0  0  0  0  0  0  0  0  0  0  0
    4.9405    0.5955    0.6989 H   0  0  0  0  0  0  0  0  0  0  0  0
    4.1881   -1.3892   -0.5987 H   0  0  0  0  0  0  0  0  0  0  0  0
    0.8798    1.5270    1.7477 H   0  0  0  0  0  0  0  0  0  0  0  0
   -0.6245   -2.6275   -0.9908 H   0  0  0  0  0  0  0  0  0  0  0  0
    1.8486   -2.7649   -1.3318 H   0  0  0  0  0  0  0  0  0  0  0  0
   -2.1562   -1.1311    0.8578 H   0  0  0  0  0  0  0  0  0  0  0  0
   -1.3242    0.1782    1.6753 H   0  0  0  0  0  0  0  0  0  0  0  0
   -1.3313    1.3579   -0.7641 H   0  0  0  0  0  0  0  0  0  0  0  0
   -4.3189    0.6295   -0.3542 H   0  0  0  0  0  0  0  0  0  0  0  0
   -3.1922    2.4564   -0.1786 H   0  0  0  0  0  0  0  0  0  0  0  0
   -2.5804    2.0139    1.2480 H   0  0  0  0  0  0  0  0  0  0  0  0
  1  2  2  0
  2  3  1  0
  3  4  2  0
  4  5  1  0
  5  6  2  0
  5  7  1  0
  7  8  2  0
  8  9  1  0
  7 10  1  0
 10 11  1  0
 11 12  1  0
 12 13  2  0
 12 14  1  0
 11 15  1  0
  6  1  1  0
  9  4  1  0
  1 16  1  0
  2 17  1  0
  3 18  1  0
  6 19  1  0
  8 20  1  0
  9 21  1  0
 10 22  1  0
 10 23  1  0
 11 24  1  6
 14 25  1  0
 15 26  1  0
 15 27  1  0
M  END
$$$$

     RDKit          3D

 24 24  0  0  0  0  0  0  0  0999 V2000
    1.4293   -0.7992   -0.3286 C   0  0  0  0  0  0  0  0  0  0  0  0
    2.7174   -0.2897   -0.5093 C   0  0  0  0  0  0  0  0  0  0  0  0
    3.1071    0.8496    0.1862 C   0  0  0  0  0  0  0  0  0  0  0  0
    2.2309    1.4860    1.0559 C   0  0  0  0  0  0  0  0  0  0  0  0
    0.9431    0.9787    1.2339 C   0  0  0  0  0  0  0  0  0  0  0  0
    0.5305   -0.1715    0.5444 C   0  0  0  0  0  0  0  0  0  0  0  0
   -0.8717   -0.7069    0.7323 C   0  0  0  0  0  0  0  0  0  0  0  0
   -1.9087   -0.0052   -0.1650 C   0  0  1  0  0  0  0  0  0  0  0  0
   -2.0429   -0.7534   -1.5096 C   0  0  0  0  0  0  0  0  0  0  0  0
   -1.1118   -1.0783   -2.2306 O   0  0  0  0  0  0  0  0  0  0  0  0
   -3.3265   -1.0312   -1.8504 O   0  0  0  0  0  0  0  0  0  0  0  0
   -3.2072    0.0690    0.5486 N   0  0  0  0  0  0  0  0  0  0  0  0
    4.3543    1.3805    0.0378 O   0  0  0  0  0  0  0  0  0  0  0  0
    1.1287   -1.6849   -0.8859 H   0  0  0  0  0  0  0  0  0  0  0  0
    3.3919   -0.7912   -1.1958 H   0  0  0  0  0  0  0  0  0  0  0  0
    2.5486    2.3755    1.5921 H   0  0  0  0  0  0  0  0  0  0  0  0
    0.2645    1.4864    1.9158 H   0  0  0  0  0  0  0  0  0  0  0  0
   -0.8800   -1.7930    0.5702 H   0  0  0  0  0  0  0  0  0  0  0  0
   -1.1268   -0.5708    1.7928 H   0  0  0  0  0  0  0  0  0  0  0  0
   -1.6117    1.0242   -0.3954 H   0  0  0  0  0  0  0  0  0  0  0  0
   -3.9347   -0.7024   -1.1643 H   0  0  0  0  0  0  0  0  0  0  0  0
   -3.5931   -0.8364    0.8032 H   0  0  0  0  0  0  0  0  0  0  0  0
   -3.8707    0.7212    0.1415 H   0  0  0  0  0  0  0  0  0  0  0  0
    4.8397    0.8429   -0.6092 H   0  0  0  0  0  0  0  0  0  0  0  0
  1  2  2  0
  2  3  1  0
  3  4  2  0
  4  5  1  0
  5  6  2  0
  6  7  1  0
  7  8  1  0
  8  9  1  0
  9 10  2  0
  9 11  1  0
  8 12  1  0
  3 13  1  0
  6  1  1  0
  1 14  1  0
  2 15  1  0
  4 16  1  0
  5 17  1  0
  7 18  1  0
  7 19  1  0
  8 20  1  6
 11 21  1  0
 12 22  1  0
 12 23  1  0
 13 24  1  0
M  END
$$$$

     RDKit          3D

 19 18  0  0  0  0  0  0  0  0999 V2000
   -0.8490   -1.5415    0.1317 C   0  0  0  0  0  0  0  0  0  0  0  0
   -0.6857   -0.0411   -0.1508 C   0  0  0  0  0  0  0  0  0  0  0  0
   -1.7550    0.7227    0.6405 C   0  0  0  0  0  0  0  0  0  0  0  0
    0.7505    0.4379    0.1784 C   0  0  1  0  0  0  0  0  0  0  0  0
    1.7684   -0.3058   -0.6993 C   0  0  0  0  0  0  0  0  0  0  0  0
    1.9667   -0.1259   -1.8921 O   0  0  0  0  0  0  0  0  0  0  0  0
    2.4568   -1.2512   -0.0274 O   0  0  0  0  0  0  0  0  0  0  0  0
    0.9371    1.8879   -0.0453 N   0  0  0  0  0  0  0  0  0  0  0  0
   -1.8749   -1.8668   -0.0732 H   0  0  0  0  0  0  0  0  0  0  0  0
   -0.6236   -1.7739    1.1781 H   0  0  0  0  0  0  0  0  0  0  0  0
   -0.1896   -2.1428   -0.5018 H   0  0  0  0  0  0  0  0  0  0  0  0
   -0.8817    0.1153   -1.2203 H   0  0  0  0  0  0  0  0  0  0  0  0
   -2.7502    0.3030    0.4563 H   0  0  0  0  0  0  0  0  0  0  0  0
   -1.5618    0.6723    1.7174 H   0  0  0  0  0  0  0  0  0  0  0  0
   -1.7967    1.7759    0.3468 H   0  0  0  0  0  0  0  0  0  0  0  0
    0.9850    0.2366    1.2305 H   0  0  0  0  0  0  0  0  0  0  0  0
    3.0744   -1.6073   -0.6996 H   0  0  0  0  0  0  0  0  0  0  0  0
    0.7908    2.0855   -1.0374 H   0  0  0  0  0  0  0  0  0  0  0  0
    0.2385    2.4192    0.4674 H   0  0  0  0  0  0  0  0  0  0  0  0
  1  2  1  0
  2  3  1  0
  2  4  1  0
  4  5  1  0
  5  6  2  0
  5  7  1  0
  4  8  1  0
  1  9  1  0
  1 10  1  0
  1 11  1  0
  2 12  1  0
  3 13  1  0
  3 14  1  0
  3 15  1  0
  4 16  1  1
  7 17  1  0
  8 18  1  0
  8 19  1  0
M  END
$$$$
